"""
Comprehensive chemical kinetic modeling of the oxidation of 2-methylalkanes from C7 to C20 - Combustion and Flame 2011
"""

ideal_gas(name = "air",
      elements = " N  H C ",
      species = """ N2 NC8H18 NC10H22 NC12H26 NC14H30 NC16H34 IC8H18 IC12H26 C7H8 C9H12_2 """,
      reactions = "all",
      transport = "Mix",
      initial_state = state(temperature = 300.0,
                            pressure = OneAtm))

#-------------------------------------------------------------------------------
# Species data
#-------------------------------------------------------------------------------

species(name=u'N2',
        atoms='N:2',
        thermo=(NASA([300.00, 1000.00],
                     [ 3.29867700E+00,  1.40824000E-03, -3.96322200E-06,
                       5.64151500E-09, -2.44485500E-12, -1.02090000E+03,
                       3.95037200E+00]),
                NASA([1000.00, 5000.00],
                     [ 2.92664000E+00,  1.48797700E-03, -5.68476100E-07,
                       1.00970400E-10, -6.75335100E-15, -9.22797700E+02,
                       5.98052800E+00])),
        transport=gas_transport(geom='linear',
                                diam=3.621,
                                well_depth=97.53,
                                polar=1.76,
                                rot_relax=4.0),
        note=u'121286')

species(name=u'NC8H18',
        atoms='C:8 H:18',
        thermo=(NASA([300.00, 1391.00],
                     [-1.54218406E+00,  9.78112063E-02, -6.09318358E-05,
                       1.92005591E-08, -2.42996250E-12, -2.85395641E+04,
                       3.83327978E+01]),
                NASA([1391.00, 5000.00],
                     [ 2.54710194E+01,  3.90887037E-02, -1.33038777E-05,
                       2.05867527E-09, -1.19167174E-13, -3.83962755E+04,
                      -1.08361094E+02])),
        transport=gas_transport(geom='nonlinear',
                                diam=6.27,
                                well_depth=612.84,
                                polar=15.9,
                                rot_relax=1.0),
        note=u'4/24/7therm')

species(name=u'NC10H22',
        atoms='C:10 H:22',
        thermo=(NASA([300.00, 1391.00],
                     [-2.08416969E+00,  1.22535012E-01, -7.76815739E-05,
                       2.49834877E-08, -3.23548038E-12, -3.43021863E+04,
                       4.42260140E+01]),
                NASA([1391.00, 5000.00],
                     [ 3.19882239E+01,  4.77244922E-02, -1.62276391E-05,
                       2.50963259E-09, -1.45215772E-13, -4.66392840E+04,
                      -1.40504121E+02])),
        transport=gas_transport(geom='nonlinear',
                                diam=6.69,
                                well_depth=704.92,
                                polar=19.1,
                                rot_relax=1.0),
        note=u'4/24/7therm')

species(name=u'NC12H26',
        atoms='C:12 H:26',
        thermo=(NASA([300.00, 1391.00],
                     [-2.62181594E+00,  1.47237711E-01, -9.43970271E-05,
                       3.07441268E-08, -4.03602230E-12, -4.00654253E+04,
                       5.00994626E+01]),
                NASA([1391.00, 5000.00],
                     [ 3.85095037E+01,  5.63550048E-02, -1.91493200E-05,
                       2.96024862E-09, -1.71244150E-13, -5.48843465E+04,
                      -1.72670922E+02])),
        transport=gas_transport(geom='nonlinear',
                                diam=7.06,
                                well_depth=789.16,
                                polar=22.75,
                                rot_relax=1.0),
        note=u'4/24/7therm')

species(name=u'NC14H30',
        atoms='C:14 H:30',
        thermo=(NASA([300.00, 1391.00],
                     [-3.15700906E+00,  1.71928447E-01, -1.11093051E-04,
                       3.64921633E-08, -4.83376115E-12, -4.58290122E+04,
                       5.59617431E+01]),
                NASA([1391.00, 5000.00],
                     [ 4.50332336E+01,  6.49823675E-02, -2.20697667E-05,
                       3.41066330E-09, -1.97260652E-13, -6.31306548E+04,
                      -2.04852039E+02])),
        transport=gas_transport(geom='nonlinear',
                                diam=7.48,
                                well_depth=857.18,
                                polar=26.56,
                                rot_relax=1.0),
        note=u'4/24/7therm')

species(name=u'NC16H34',
        atoms='C:16 H:34',
        thermo=(NASA([300.00, 1391.00],
                     [-3.69111950E+00,  1.96612966E-01, -1.27777824E-04,
                       4.22323349E-08, -5.62967041E-12, -5.15927302E+04,
                       6.18192742E+01]),
                NASA([1391.00, 5000.00],
                     [ 5.15593854E+01,  7.36064257E-02, -2.49888737E-05,
                       3.86085377E-09, -2.23263662E-13, -7.13781425E+04,
                      -2.37047216E+02])),
        transport=gas_transport(geom='nonlinear',
                                diam=7.73,
                                well_depth=938.92,
                                polar=30.26,
                                rot_relax=1.0),
        note=u'4/24/7therm')

species(name=u'IC8H18',
        atoms='C:8 H:18',
        thermo=(NASA([300.00, 1391.00],
                     [-2.05512926E+00,  9.98753452E-02, -6.36974454E-05,
                       2.09386053E-08, -2.83296319E-12, -2.95845121E+04,
                       4.00890078E+01]),
                NASA([1391.00, 5000.00],
                     [ 2.54269577E+01,  3.94527058E-02, -1.34985843E-05,
                       2.09602707E-09, -1.21616165E-13, -3.95805494E+04,
                      -1.08969995E+02])),
        transport=gas_transport(geom='nonlinear',
                                diam=6.24,
                                well_depth=596.06,
                                polar=15.9,
                                rot_relax=1.0),
        note=u'5/8/5therm')

species(name=u'IC12H26',
        atoms='C:12 H:26',
        thermo=(NASA([300.00, 1392.00],
                     [-3.12696643E+00,  1.49358809E-01, -9.73641522E-05,
                       3.26401304E-08, -4.47555486E-12, -4.11137435E+04,
                       5.18019125E+01]),
                NASA([1392.00, 5000.00],
                     [ 3.83859437E+01,  5.67974919E-02, -1.93718553E-05,
                       3.00189513E-09, -1.73937312E-13, -5.60211879E+04,
                      -1.72795858E+02])),
        transport=gas_transport(geom='nonlinear',
                                diam=7.12,
                                well_depth=833.78,
                                polar=22.75,
                                rot_relax=1.0),
        note=u'5/8/5therm')

species(name=u'C7H8',
        atoms='C:7 H:8',
        thermo=(NASA([300.00, 1000.00],
                     [-0.48577561E+01,  0.70124537E-01, -0.43211745E-04,
                       0.92291188E-08,  0.55434552E-12,  0.46851802E+04,
                       0.47097549E+02]),
                NASA([1000.00, 5000.00],
                     [ 0.11872269E+02,  0.28934540E-01, -0.10644716E-04,
                       0.17906390E-08, -0.11423150E-12, -0.31218710E+03,
                      -0.40916248E+02])),
        transport=gas_transport(geom='nonlinear',
                                diam=5.549,
                                well_depth=450.0,
                                rot_relax=1.0),
        note=u'benz')

species(name=u'C9H12_2',
        atoms='C:9 H:12',
        thermo=(NASA([300.00, 1800.00],
                     [-2.75522789E+00,  8.39491691E-02, -5.21867417E-05,
                       1.62235790E-08, -2.02559281E-12, -4.59793488E+03,
                       4.12457040E+01]),
                NASA([1800.00, 3500.00],
                     [ 1.47576861E+01,  4.50315825E-02, -1.97554195E-05,
                       4.21197817E-09, -3.57314917E-13, -1.09025839E+04,
                      -5.35378398E+01])),
        transport=gas_transport(geom='nonlinear',
                                diam=5.96,
                                well_depth=523.6,
                                rot_relax=1.0))