
ideal_gas(name = "mec_spray",
      elements = " N  H O ",
      species = """ N2  H2O """,
      reactions = "all",
      transport = "Mix",
      initial_state = state(temperature = 300.0,
                            pressure = OneAtm))


#-------------------------------------------------------------------------------
# Species data
#-------------------------------------------------------------------------------

species(name = "H2O",
    atoms = " H:2  O:1 ",
    thermo = (
       NASA( [  200.00,  1000.00], [  4.198640560E+00,  -2.036434100E-03, 
                6.520402110E-06,  -5.487970620E-09,   1.771978170E-12,
               -3.029372670E+04,  -8.490322080E-01] ),
       NASA( [ 1000.00,  3500.00], [  3.033992490E+00,   2.176918040E-03, 
               -1.640725180E-07,  -9.704198700E-11,   1.682009920E-14,
               -3.000429710E+04,   4.966770100E+00] )
             ),
    transport = gas_transport(
                     geom = "nonlinear",
                     diam =     2.60,
                     well_depth =   572.40,
                     dipole =     1.84,
                     rot_relax =     4.00),
    note = "L 8/89"
       )

species(name = "N2",
        atoms= " N:2 ",
        thermo=(
            NASA([300.00, 1000.00],
                     [ 3.29867700E+00,  1.40824000E-03, -3.96322200E-06,
                       5.64151500E-09, -2.44485500E-12, -1.02090000E+03,
                       3.95037200E+00]),
            NASA([1000.00, 5000.00],
                     [ 2.92664000E+00,  1.48797700E-03, -5.68476100E-07,
                       1.00970400E-10, -6.75335100E-15, -9.22797700E+02,
                       5.98052800E+00])
            ),
        transport = gas_transport(
                        geom="linear",
                        diam=3.621,
                        well_depth=97.53,
                        polar=1.76,
                        rot_relax=4.0),
        note= "121286"
        )
